/*--------------------------------*- C++ -*----------------------------------*\
  =========                 |
  \\      /  F ield         | OpenFOAM: The Open Source CFD Toolbox
   \\    /   O peration     | Website:  https://openfoam.org
    \\  /    A nd           | Version:  7
     \\/     M anipulation  |

# Author1: Nithin Adidela, IIT Goa
# email: nithin.adiela.16003@iitgoa.ac.in
# Author2: Revanth Sharma Kollegala, IIT Goa
# email: revanth.sharma.16003@iitgoa.ac.in
# Author3: Y Sudhakar, IIT Goa
# email: sudhakar@iitgoa.ac.in
\*---------------------------------------------------------------------------*/
FoamFile
{
    version     2.0;
    format      ascii;
    class       volVectorField;
    object      U;
}
// * * * * * * * * * * * * * * * * * * * * * * * * * * * * * * * * * * * * * //

dimensions      [0 1 -1 0 0 0 0];

internalField   uniform (0 0 0);

boundaryField
{
    bottom
    {
        type            symmetryPlane;
    }

    right
    {
        type            zeroGradient;
    }

    top
    {
        type            symmetryPlane;
    }

    left
    {
        type            uniformFixedValue;
        uniformValue  table
(
  (	0	(	0	0	0	)	)
(	0.0001	(	1.54212560832256E-07	0	0	)	)
(	0.0002	(	6.16850148238424E-07	0	0	)	)
(	0.0003	(	1.38791247678016E-06	0	0	)	)
(	0.0004	(	2.46739907089344E-06	0	0	)	)
(	0.0005	(	3.855309264722E-06	0	0	)	)
(	0.0006	(	5.55164220200632E-06	0	0	)	)
(	0.0007	(	7.55639683647225E-06	0	0	)	)
(	0.0008	(	9.86957193144233E-06	0	0	)	)
(	0.0009	(	1.2491166060058E-05	0	0	)	)
(	0.001	(	1.54211776051683E-05	0	0	)	)
(	0.0011	(	1.86596047593857E-05	0	0	)	)
(	0.0012	(	2.22064455250859E-05	0	0	)	)
(	0.0013	(	2.60616977144634E-05	0	0	)	)
(	0.0014	(	3.02253589493096E-05	0	0	)	)
(	0.0015	(	3.46974266613453E-05	0	0	)	)
(	0.0016	(	3.94778980919441E-05	0	0	)	)
(	0.0017	(	4.45667702922425E-05	0	0	)	)
(	0.0018	(	4.99640401232515E-05	0	0	)	)
(	0.0019	(	5.56697042555787E-05	0	0	)	)
(	0.002	(	6.16837591697061E-05	0	0	)	)
(	0.0021	(	6.80062011558791E-05	0	0	)	)
(	0.0022	(	7.46370263141061E-05	0	0	)	)
(	0.0023	(	8.15762305541035E-05	0	0	)	)
(	0.0024	(	8.88238095955174E-05	0	0	)	)
(	0.0025	(	9.63797589675908E-05	0	0	)	)
(	0.0026	(	0.000104244074009	0	0	)	)
(	0.0027	(	0.00011241674987	0	0	)	)
(	0.0028	(	0.000120897781508	0	0	)	)
(	0.0029	(	0.000129687163692	0	0	)	)
(	0.003	(	0.000138784891	0	0	)	)
(	0.0031	(	0.00014819095782	0	0	)	)
(	0.0032	(	0.00015790535835	0	0	)	)
(	0.0033	(	0.000167928086598	0	0	)	)
(	0.0034	(	0.000178259136381	0	0	)	)
(	0.0035	(	0.000188898501327	0	0	)	)
(	0.0036	(	0.000199846174872	0	0	)	)
(	0.0037	(	0.000211102150263	0	0	)	)
(	0.0038	(	0.000222666420558	0	0	)	)
(	0.0039	(	0.000234538978623	0	0	)	)
(	0.004	(	0.000246719817134	0	0	)	)
(	0.0041	(	0.000259208928578	0	0	)	)
(	0.0042	(	0.00027200630525	0	0	)	)
(	0.0043	(	0.000285111939257	0	0	)	)
(	0.0044	(	0.000298525822514	0	0	)	)
(	0.0045	(	0.000312247946747	0	0	)	)
(	0.0046	(	0.000326278303491	0	0	)	)
(	0.0047	(	0.000340616884092	0	0	)	)
(	0.0048	(	0.000355263679705	0	0	)	)
(	0.0049	(	0.000370218681296	0	0	)	)
(	0.005	(	0.000385481879639	0	0	)	)
(	0.0051	(	0.000401053265318	0	0	)	)
(	0.0052	(	0.00041693282873	0	0	)	)
(	0.0053	(	0.000433120560078	0	0	)	)
(	0.0054	(	0.000449616449378	0	0	)	)
(	0.0055	(	0.000466420486453	0	0	)	)
(	0.0056	(	0.000483532660938	0	0	)	)
(	0.0057	(	0.000500952962277	0	0	)	)
(	0.0058	(	0.000518681379725	0	0	)	)
(	0.0059	(	0.000536717902347	0	0	)	)
(	0.006	(	0.000555062519015	0	0	)	)
(	0.0061	(	0.000573715218415	0	0	)	)
(	0.0062	(	0.000592675989039	0	0	)	)
(	0.0063	(	0.000611944819194	0	0	)	)
(	0.0064	(	0.000631521696991	0	0	)	)
(	0.0065	(	0.000651406610356	0	0	)	)
(	0.0066	(	0.000671599547023	0	0	)	)
(	0.0067	(	0.000692100494534	0	0	)	)
(	0.0068	(	0.000712909440245	0	0	)	)
(	0.0069	(	0.000734026371319	0	0	)	)
(	0.007	(	0.000755451274731	0	0	)	)
(	0.0071	(	0.000777184137264	0	0	)	)
(	0.0072	(	0.000799224945512	0	0	)	)
(	0.0073	(	0.00082157368588	0	0	)	)
(	0.0074	(	0.000844230344582	0	0	)	)
(	0.0075	(	0.000867194907642	0	0	)	)
(	0.0076	(	0.000890467360894	0	0	)	)
(	0.0077	(	0.000914047689983	0	0	)	)
(	0.0078	(	0.000937935880363	0	0	)	)
(	0.0079	(	0.000962131917298	0	0	)	)
(	0.008	(	0.000986635785864	0	0	)	)
(	0.0081	(	0.001011447470945	0	0	)	)
(	0.0082	(	0.001036566957236	0	0	)	)
(	0.0083	(	0.001061994229243	0	0	)	)
(	0.0084	(	0.001087729271279	0	0	)	)
(	0.0085	(	0.001113772067471	0	0	)	)
(	0.0086	(	0.001140122601755	0	0	)	)
(	0.0087	(	0.001166780857875	0	0	)	)
(	0.0088	(	0.001193746819387	0	0	)	)
(	0.0089	(	0.001221020469659	0	0	)	)
(	0.009	(	0.001248601791865	0	0	)	)
(	0.0091	(	0.001276490768993	0	0	)	)
(	0.0092	(	0.001304687383838	0	0	)	)
(	0.0093	(	0.001333191619009	0	0	)	)
(	0.0094	(	0.001362003456921	0	0	)	)
(	0.0095	(	0.001391122879804	0	0	)	)
(	0.0096	(	0.001420549869693	0	0	)	)
(	0.0097	(	0.001450284408438	0	0	)	)
(	0.0098	(	0.001480326477696	0	0	)	)
(	0.0099	(	0.001510676058935	0	0	)	)
(	0.01	(	0.001541333133436	0	0	)	)
(	0.0101	(	0.001572297682287	0	0	)	)
(	0.0102	(	0.001603569686387	0	0	)	)
(	0.0103	(	0.001635149126446	0	0	)	)
(	0.0104	(	0.001667035982985	0	0	)	)
(	0.0105	(	0.001699230236334	0	0	)	)
(	0.0106	(	0.001731731866634	0	0	)	)
(	0.0107	(	0.001764540853837	0	0	)	)
(	0.0108	(	0.001797657177704	0	0	)	)
(	0.0109	(	0.001831080817807	0	0	)	)
(	0.011	(	0.001864811753529	0	0	)	)
(	0.0111	(	0.001898849964064	0	0	)	)
(	0.0112	(	0.001933195428414	0	0	)	)
(	0.0113	(	0.001967848125393	0	0	)	)
(	0.0114	(	0.002002808033627	0	0	)	)
(	0.0115	(	0.00203807513155	0	0	)	)
(	0.0116	(	0.002073649397407	0	0	)	)
(	0.0117	(	0.002109530809255	0	0	)	)
(	0.0118	(	0.00214571934496	0	0	)	)
(	0.0119	(	0.002182214982199	0	0	)	)
(	0.012	(	0.00221901769846	0	0	)	)
(	0.0121	(	0.002256127471041	0	0	)	)
(	0.0122	(	0.002293544277051	0	0	)	)
(	0.0123	(	0.002331268093409	0	0	)	)
(	0.0124	(	0.002369298896846	0	0	)	)
(	0.0125	(	0.002407636663902	0	0	)	)
(	0.0126	(	0.002446281370928	0	0	)	)
(	0.0127	(	0.002485232994086	0	0	)	)
(	0.0128	(	0.00252449150935	0	0	)	)
(	0.0129	(	0.002564056892502	0	0	)	)
(	0.013	(	0.002603929119137	0	0	)	)
(	0.0131	(	0.002644108164659	0	0	)	)
(	0.0132	(	0.002684594004284	0	0	)	)
(	0.0133	(	0.002725386613038	0	0	)	)
(	0.0134	(	0.002766485965759	0	0	)	)
(	0.0135	(	0.002807892037093	0	0	)	)
(	0.0136	(	0.002849604801501	0	0	)	)
(	0.0137	(	0.00289162423325	0	0	)	)
(	0.0138	(	0.002933950306422	0	0	)	)
(	0.0139	(	0.002976582994908	0	0	)	)
(	0.014	(	0.00301952227241	0	0	)	)
(	0.0141	(	0.003062768112441	0	0	)	)
(	0.0142	(	0.003106320488323	0	0	)	)
(	0.0143	(	0.003150179373193	0	0	)	)
(	0.0144	(	0.003194344739996	0	0	)	)
(	0.0145	(	0.003238816561488	0	0	)	)
(	0.0146	(	0.003283594810237	0	0	)	)
(	0.0147	(	0.003328679458621	0	0	)	)
(	0.0148	(	0.00337407047883	0	0	)	)
(	0.0149	(	0.003419767842865	0	0	)	)
(	0.015	(	0.003465771522537	0	0	)	)
(	0.0151	(	0.003512081489468	0	0	)	)
(	0.0152	(	0.003558697715093	0	0	)	)
(	0.0153	(	0.003605620170656	0	0	)	)
(	0.0154	(	0.003652848827213	0	0	)	)
(	0.0155	(	0.003700383655631	0	0	)	)
(	0.0156	(	0.003748224626588	0	0	)	)
(	0.0157	(	0.003796371710574	0	0	)	)
(	0.0158	(	0.003844824877888	0	0	)	)
(	0.0159	(	0.003893584098643	0	0	)	)
(	0.016	(	0.003942649342761	0	0	)	)
(	0.0161	(	0.003992020579977	0	0	)	)
(	0.0162	(	0.004041697779835	0	0	)	)
(	0.0163	(	0.004091680911693	0	0	)	)
(	0.0164	(	0.004141969944719	0	0	)	)
(	0.0165	(	0.00419256484789	0	0	)	)
(	0.0166	(	0.004243465589999	0	0	)	)
(	0.0167	(	0.004294672139647	0	0	)	)
(	0.0168	(	0.004346184465247	0	0	)	)
(	0.0169	(	0.004398002535023	0	0	)	)
(	0.017	(	0.004450126317013	0	0	)	)
(	0.0171	(	0.004502555779062	0	0	)	)
(	0.0172	(	0.004555290888831	0	0	)	)
(	0.0173	(	0.004608331613789	0	0	)	)
(	0.0174	(	0.004661677921218	0	0	)	)
(	0.0175	(	0.004715329778211	0	0	)	)
(	0.0176	(	0.004769287151674	0	0	)	)
(	0.0177	(	0.004823550008323	0	0	)	)
(	0.0178	(	0.004878118314686	0	0	)	)
(	0.0179	(	0.004932992037101	0	0	)	)
(	0.018	(	0.004988171141721	0	0	)	)
(	0.0181	(	0.005043655594508	0	0	)	)
(	0.0182	(	0.005099445361237	0	0	)	)
(	0.0183	(	0.005155540407493	0	0	)	)
(	0.0184	(	0.005211940698675	0	0	)	)
(	0.0185	(	0.005268646199991	0	0	)	)
(	0.0186	(	0.005325656876463	0	0	)	)
(	0.0187	(	0.005382972692924	0	0	)	)
(	0.0188	(	0.005440593614019	0	0	)	)
(	0.0189	(	0.005498519604204	0	0	)	)
(	0.019	(	0.005556750627748	0	0	)	)
(	0.0191	(	0.00561528664873	0	0	)	)
(	0.0192	(	0.005674127631043	0	0	)	)
(	0.0193	(	0.005733273538391	0	0	)	)
(	0.0194	(	0.005792724334289	0	0	)	)
(	0.0195	(	0.005852479982065	0	0	)	)
(	0.0196	(	0.00591254044486	0	0	)	)
(	0.0197	(	0.005972905685624	0	0	)	)
(	0.0198	(	0.006033575667121	0	0	)	)
(	0.0199	(	0.006094550351928	0	0	)	)
(	0.02	(	0.006155829702431	0	0	)	)
(	0.0201	(	0.006217413680831	0	0	)	)
(	0.0202	(	0.00627930224914	0	0	)	)
(	0.0203	(	0.006341495369181	0	0	)	)
(	0.0204	(	0.00640399300259	0	0	)	)
(	0.0205	(	0.006466795110817	0	0	)	)
(	0.0206	(	0.006529901655122	0	0	)	)
(	0.0207	(	0.006593312596576	0	0	)	)
(	0.0208	(	0.006657027896066	0	0	)	)
(	0.0209	(	0.006721047514288	0	0	)	)
(	0.021	(	0.006785371411752	0	0	)	)
(	0.0211	(	0.00684999954878	0	0	)	)
(	0.0212	(	0.006914931885506	0	0	)	)
(	0.0213	(	0.006980168381875	0	0	)	)
(	0.0214	(	0.007045708997648	0	0	)	)
(	0.0215	(	0.007111553692396	0	0	)	)
(	0.0216	(	0.007177702425501	0	0	)	)
(	0.0217	(	0.007244155156161	0	0	)	)
(	0.0218	(	0.007310911843383	0	0	)	)
(	0.0219	(	0.007377972445989	0	0	)	)
(	0.022	(	0.007445336922613	0	0	)	)
(	0.0221	(	0.007513005231701	0	0	)	)
(	0.0222	(	0.007580977331511	0	0	)	)
(	0.0223	(	0.007649253180115	0	0	)	)
(	0.0224	(	0.007717832735397	0	0	)	)
(	0.0225	(	0.007786715955054	0	0	)	)
(	0.0226	(	0.007855902796595	0	0	)	)
(	0.0227	(	0.007925393217342	0	0	)	)
(	0.0228	(	0.00799518717443	0	0	)	)
(	0.0229	(	0.008065284624807	0	0	)	)
(	0.023	(	0.008135685525232	0	0	)	)
(	0.0231	(	0.00820638983228	0	0	)	)
(	0.0232	(	0.008277397502335	0	0	)	)
(	0.0233	(	0.008348708491598	0	0	)	)
(	0.0234	(	0.008420322756079	0	0	)	)
(	0.0235	(	0.008492240251604	0	0	)	)
(	0.0236	(	0.00856446093381	0	0	)	)
(	0.0237	(	0.008636984758148	0	0	)	)
(	0.0238	(	0.008709811679882	0	0	)	)
(	0.0239	(	0.008782941654088	0	0	)	)
(	0.024	(	0.008856374635656	0	0	)	)
(	0.0241	(	0.008930110579288	0	0	)	)
(	0.0242	(	0.009004149439502	0	0	)	)
(	0.0243	(	0.009078491170625	0	0	)	)
(	0.0244	(	0.009153135726801	0	0	)	)
(	0.0245	(	0.009228083061984	0	0	)	)
(	0.0246	(	0.009303333129943	0	0	)	)
(	0.0247	(	0.009378885884261	0	0	)	)
(	0.0248	(	0.009454741278333	0	0	)	)
(	0.0249	(	0.009530899265367	0	0	)	)
(	0.025	(	0.009607359798385	0	0	)	)
(	0.0251	(	0.009684122830222	0	0	)	)
(	0.0252	(	0.009761188313528	0	0	)	)
(	0.0253	(	0.009838556200764	0	0	)	)
(	0.0254	(	0.009916226444205	0	0	)	)
(	0.0255	(	0.009994198995942	0	0	)	)
(	0.0256	(	0.010072473807877	0	0	)	)
(	0.0257	(	0.010151050831725	0	0	)	)
(	0.0258	(	0.010229930019016	0	0	)	)
(	0.0259	(	0.010309111321095	0	0	)	)
(	0.026	(	0.010388594689117	0	0	)	)
(	0.0261	(	0.010468380074054	0	0	)	)
(	0.0262	(	0.01054846742669	0	0	)	)
(	0.0263	(	0.010628856697622	0	0	)	)
(	0.0264	(	0.010709547837264	0	0	)	)
(	0.0265	(	0.01079054079584	0	0	)	)
(	0.0266	(	0.01087183552339	0	0	)	)
(	0.0267	(	0.010953431969767	0	0	)	)
(	0.0268	(	0.011035330084639	0	0	)	)
(	0.0269	(	0.011117529817487	0	0	)	)
(	0.027	(	0.011200031117605	0	0	)	)
(	0.0271	(	0.011282833934103	0	0	)	)
(	0.0272	(	0.011365938215903	0	0	)	)
(	0.0273	(	0.011449343911744	0	0	)	)
(	0.0274	(	0.011533050970176	0	0	)	)
(	0.0275	(	0.011617059339564	0	0	)	)
(	0.0276	(	0.011701368968088	0	0	)	)
(	0.0277	(	0.011785979803741	0	0	)	)
(	0.0278	(	0.011870891794332	0	0	)	)
(	0.0279	(	0.011956104887481	0	0	)	)
(	0.028	(	0.012041619030626	0	0	)	)
(	0.0281	(	0.012127434171018	0	0	)	)
(	0.0282	(	0.01221355025572	0	0	)	)
(	0.0283	(	0.012299967231612	0	0	)	)
(	0.0284	(	0.012386685045388	0	0	)	)
(	0.0285	(	0.012473703643557	0	0	)	)
(	0.0286	(	0.012561022972439	0	0	)	)
(	0.0287	(	0.012648642978174	0	0	)	)
(	0.0288	(	0.012736563606712	0	0	)	)
(	0.0289	(	0.012824784803818	0	0	)	)
(	0.029	(	0.012913306515075	0	0	)	)
(	0.0291	(	0.013002128685878	0	0	)	)
(	0.0292	(	0.013091251261436	0	0	)	)
(	0.0293	(	0.013180674186774	0	0	)	)
(	0.0294	(	0.013270397406731	0	0	)	)
(	0.0295	(	0.013360420865963	0	0	)	)
(	0.0296	(	0.013450744508937	0	0	)	)
(	0.0297	(	0.013541368279938	0	0	)	)
(	0.0298	(	0.013632292123064	0	0	)	)
(	0.0299	(	0.013723515982229	0	0	)	)
(	0.03	(	0.013815039801162	0	0	)	)
(	0.0301	(	0.013906863523406	0	0	)	)
(	0.0302	(	0.013998987092319	0	0	)	)
(	0.0303	(	0.014091410451075	0	0	)	)
(	0.0304	(	0.014184133542663	0	0	)	)
(	0.0305	(	0.014277156309887	0	0	)	)
(	0.0306	(	0.014370478695364	0	0	)	)
(	0.0307	(	0.014464100641531	0	0	)	)
(	0.0308	(	0.014558022090635	0	0	)	)
(	0.0309	(	0.014652242984741	0	0	)	)
(	0.031	(	0.014746763265729	0	0	)	)
(	0.0311	(	0.014841582875294	0	0	)	)
(	0.0312	(	0.014936701754947	0	0	)	)
(	0.0313	(	0.015032119846014	0	0	)	)
(	0.0314	(	0.015127837089635	0	0	)	)
(	0.0315	(	0.015223853426768	0	0	)	)
(	0.0316	(	0.015320168798185	0	0	)	)
(	0.0317	(	0.015416783144474	0	0	)	)
(	0.0318	(	0.015513696406039	0	0	)	)
(	0.0319	(	0.015610908523097	0	0	)	)
(	0.032	(	0.015708419435685	0	0	)	)
(	0.0321	(	0.015806229083651	0	0	)	)
(	0.0322	(	0.015904337406664	0	0	)	)
(	0.0323	(	0.016002744344203	0	0	)	)
(	0.0324	(	0.016101449835567	0	0	)	)
(	0.0325	(	0.01620045381987	0	0	)	)
(	0.0326	(	0.016299756236041	0	0	)	)
(	0.0327	(	0.016399357022825	0	0	)	)
(	0.0328	(	0.016499256118783	0	0	)	)
(	0.0329	(	0.016599453462292	0	0	)	)
(	0.033	(	0.016699948991546	0	0	)	)
(	0.0331	(	0.016800742644555	0	0	)	)
(	0.0332	(	0.016901834359143	0	0	)	)
(	0.0333	(	0.017003224072952	0	0	)	)
(	0.0334	(	0.017104911723439	0	0	)	)
(	0.0335	(	0.01720689724788	0	0	)	)
(	0.0336	(	0.017309180583363	0	0	)	)
(	0.0337	(	0.017411761666796	0	0	)	)
(	0.0338	(	0.017514640434901	0	0	)	)
(	0.0339	(	0.017617816824217	0	0	)	)
(	0.034	(	0.017721290771101	0	0	)	)
(	0.0341	(	0.017825062211724	0	0	)	)
(	0.0342	(	0.017929131082074	0	0	)	)
(	0.0343	(	0.018033497317957	0	0	)	)
(	0.0344	(	0.018138160854995	0	0	)	)
(	0.0345	(	0.018243121628626	0	0	)	)
(	0.0346	(	0.018348379574104	0	0	)	)
(	0.0347	(	0.018453934626501	0	0	)	)
(	0.0348	(	0.018559786720706	0	0	)	)
(	0.0349	(	0.018665935791424	0	0	)	)
(	0.035	(	0.018772381773176	0	0	)	)
(	0.0351	(	0.018879124600302	0	0	)	)
(	0.0352	(	0.018986164206957	0	0	)	)
(	0.0353	(	0.019093500527114	0	0	)	)
(	0.0354	(	0.019201133494561	0	0	)	)
(	0.0355	(	0.019309063042907	0	0	)	)
(	0.0356	(	0.019417289105574	0	0	)	)
(	0.0357	(	0.019525811615803	0	0	)	)
(	0.0358	(	0.019634630506653	0	0	)	)
(	0.0359	(	0.019743745710997	0	0	)	)
(	0.036	(	0.019853157161529	0	0	)	)
(	0.0361	(	0.019962864790757	0	0	)	)
(	0.0362	(	0.020072868531009	0	0	)	)
(	0.0363	(	0.020183168314429	0	0	)	)
(	0.0364	(	0.020293764072979	0	0	)	)
(	0.0365	(	0.020404655738436	0	0	)	)
(	0.0366	(	0.020515843242399	0	0	)	)
(	0.0367	(	0.02062732651628	0	0	)	)
(	0.0368	(	0.020739105491312	0	0	)	)
(	0.0369	(	0.020851180098543	0	0	)	)
(	0.037	(	0.020963550268841	0	0	)	)
(	0.0371	(	0.021076215932888	0	0	)	)
(	0.0372	(	0.021189177021189	0	0	)	)
(	0.0373	(	0.021302433464062	0	0	)	)
(	0.0374	(	0.021415985191646	0	0	)	)
(	0.0375	(	0.021529832133896	0	0	)	)
(	0.0376	(	0.021643974220585	0	0	)	)
(	0.0377	(	0.021758411381305	0	0	)	)
(	0.0378	(	0.021873143545465	0	0	)	)
(	0.0379	(	0.021988170642294	0	0	)	)
(	0.038	(	0.022103492600835	0	0	)	)
(	0.0381	(	0.022219109349953	0	0	)	)
(	0.0382	(	0.02233502081833	0	0	)	)
(	0.0383	(	0.022451226934466	0	0	)	)
(	0.0384	(	0.022567727626679	0	0	)	)
(	0.0385	(	0.022684522823105	0	0	)	)
(	0.0386	(	0.022801612451699	0	0	)	)
(	0.0387	(	0.022918996440234	0	0	)	)
(	0.0388	(	0.023036674716303	0	0	)	)
(	0.0389	(	0.023154647207315	0	0	)	)
(	0.039	(	0.023272913840499	0	0	)	)
(	0.0391	(	0.023391474542903	0	0	)	)
(	0.0392	(	0.023510329241391	0	0	)	)
(	0.0393	(	0.023629477862648	0	0	)	)
(	0.0394	(	0.023748920333178	0	0	)	)
(	0.0395	(	0.023868656579302	0	0	)	)
(	0.0396	(	0.023988686527162	0	0	)	)
(	0.0397	(	0.024109010102716	0	0	)	)
(	0.0398	(	0.024229627231743	0	0	)	)
(	0.0399	(	0.02435053783984	0	0	)	)
(	0.04	(	0.024471741852423	0	0	)	)
(	0.0401	(	0.024593239194729	0	0	)	)
(	0.0402	(	0.02471502979181	0	0	)	)
(	0.0403	(	0.024837113568541	0	0	)	)
(	0.0404	(	0.024959490449614	0	0	)	)
(	0.0405	(	0.025082160359541	0	0	)	)
(	0.0406	(	0.025205123222653	0	0	)	)
(	0.0407	(	0.025328378963101	0	0	)	)
(	0.0408	(	0.025451927504853	0	0	)	)
(	0.0409	(	0.025575768771699	0	0	)	)
(	0.041	(	0.025699902687248	0	0	)	)
(	0.0411	(	0.025824329174927	0	0	)	)
(	0.0412	(	0.025949048157984	0	0	)	)
(	0.0413	(	0.026074059559486	0	0	)	)
(	0.0414	(	0.02619936330232	0	0	)	)
(	0.0415	(	0.026324959309192	0	0	)	)
(	0.0416	(	0.026450847502628	0	0	)	)
(	0.0417	(	0.026577027804974	0	0	)	)
(	0.0418	(	0.026703500138395	0	0	)	)
(	0.0419	(	0.026830264424878	0	0	)	)
(	0.042	(	0.026957320586227	0	0	)	)
(	0.0421	(	0.027084668544069	0	0	)	)
(	0.0422	(	0.027212308219847	0	0	)	)
(	0.0423	(	0.027340239534828	0	0	)	)
(	0.0424	(	0.027468462410098	0	0	)	)
(	0.0425	(	0.027596976766561	0	0	)	)
(	0.0426	(	0.027725782524944	0	0	)	)
(	0.0427	(	0.027854879605794	0	0	)	)
(	0.0428	(	0.027984267929475	0	0	)	)
(	0.0429	(	0.028113947416176	0	0	)	)
(	0.043	(	0.028243917985903	0	0	)	)
(	0.0431	(	0.028374179558485	0	0	)	)
(	0.0432	(	0.028504732053568	0	0	)	)
(	0.0433	(	0.028635575390622	0	0	)	)
(	0.0434	(	0.028766709488936	0	0	)	)
(	0.0435	(	0.02889813426762	0	0	)	)
(	0.0436	(	0.029029849645605	0	0	)	)
(	0.0437	(	0.029161855541641	0	0	)	)
(	0.0438	(	0.029294151874302	0	0	)	)
(	0.0439	(	0.029426738561979	0	0	)	)
(	0.044	(	0.029559615522887	0	0	)	)
(	0.0441	(	0.029692782675061	0	0	)	)
(	0.0442	(	0.029826239936357	0	0	)	)
(	0.0443	(	0.02995998722445	0	0	)	)
(	0.0444	(	0.03009402445684	0	0	)	)
(	0.0445	(	0.030228351550846	0	0	)	)
(	0.0446	(	0.030362968423607	0	0	)	)
(	0.0447	(	0.030497874992085	0	0	)	)
(	0.0448	(	0.030633071173063	0	0	)	)
(	0.0449	(	0.030768556883146	0	0	)	)
(	0.045	(	0.030904332038758	0	0	)	)
(	0.0451	(	0.031040396556147	0	0	)	)
(	0.0452	(	0.031176750351382	0	0	)	)
(	0.0453	(	0.031313393340353	0	0	)	)
(	0.0454	(	0.031450325438771	0	0	)	)
(	0.0455	(	0.031587546562169	0	0	)	)
(	0.0456	(	0.031725056625904	0	0	)	)
(	0.0457	(	0.031862855545151	0	0	)	)
(	0.0458	(	0.03200094323491	0	0	)	)
(	0.0459	(	0.032139319610001	0	0	)	)
(	0.046	(	0.032277984585066	0	0	)	)
(	0.0461	(	0.032416938074571	0	0	)	)
(	0.0462	(	0.032556179992801	0	0	)	)
(	0.0463	(	0.032695710253865	0	0	)	)
(	0.0464	(	0.032835528771694	0	0	)	)
(	0.0465	(	0.032975635460041	0	0	)	)
(	0.0466	(	0.033116030232481	0	0	)	)
(	0.0467	(	0.033256713002411	0	0	)	)
(	0.0468	(	0.033397683683051	0	0	)	)
(	0.0469	(	0.033538942187443	0	0	)	)
(	0.047	(	0.033680488428453	0	0	)	)
(	0.0471	(	0.033822322318767	0	0	)	)
(	0.0472	(	0.033964443770895	0	0	)	)
(	0.0473	(	0.034106852697169	0	0	)	)
(	0.0474	(	0.034249549009744	0	0	)	)
(	0.0475	(	0.034392532620598	0	0	)	)
(	0.0476	(	0.034535803441532	0	0	)	)
(	0.0477	(	0.034679361384169	0	0	)	)
(	0.0478	(	0.034823206359955	0	0	)	)
(	0.0479	(	0.034967338280159	0	0	)	)
(	0.048	(	0.035111757055874	0	0	)	)
(	0.0481	(	0.035256462598015	0	0	)	)
(	0.0482	(	0.03540145481732	0	0	)	)
(	0.0483	(	0.03554673362435	0	0	)	)
(	0.0484	(	0.035692298929491	0	0	)	)
(	0.0485	(	0.035838150642951	0	0	)	)
(	0.0486	(	0.03598428867476	0	0	)	)
(	0.0487	(	0.036130712934773	0	0	)	)
(	0.0488	(	0.036277423332669	0	0	)	)
(	0.0489	(	0.03642441977795	0	0	)	)
(	0.049	(	0.03657170217994	0	0	)	)
(	0.0491	(	0.036719270447788	0	0	)	)
(	0.0492	(	0.036867124490467	0	0	)	)
(	0.0493	(	0.037015264216773	0	0	)	)
(	0.0494	(	0.037163689535325	0	0	)	)
(	0.0495	(	0.037312400354569	0	0	)	)
(	0.0496	(	0.037461396582771	0	0	)	)
(	0.0497	(	0.037610678128023	0	0	)	)
(	0.0498	(	0.037760244898241	0	0	)	)
(	0.0499	(	0.037910096801164	0	0	)	)
(	0.05	(	0.038060233744357	0	0	)	)
(	0.0501	(	0.038210655635206	0	0	)	)
(	0.0502	(	0.038361362380926	0	0	)	)
(	0.0503	(	0.038512353888551	0	0	)	)
(	0.0504	(	0.038663630064943	0	0	)	)
(	0.0505	(	0.038815190816787	0	0	)	)
(	0.0506	(	0.038967036050592	0	0	)	)
(	0.0507	(	0.039119165672694	0	0	)	)
(	0.0508	(	0.039271579589251	0	0	)	)
(	0.0509	(	0.039424277706246	0	0	)	)
(	0.051	(	0.039577259929487	0	0	)	)
(	0.0511	(	0.039730526164607	0	0	)	)
(	0.0512	(	0.039884076317065	0	0	)	)
(	0.0513	(	0.040037910292142	0	0	)	)
(	0.0514	(	0.040192027994946	0	0	)	)
(	0.0515	(	0.040346429330409	0	0	)	)
(	0.0516	(	0.040501114203289	0	0	)	)
(	0.0517	(	0.040656082518169	0	0	)	)
(	0.0518	(	0.040811334179456	0	0	)	)
(	0.0519	(	0.040966869091384	0	0	)	)
(	0.052	(	0.04112268715801	0	0	)	)
(	0.0521	(	0.041278788283217	0	0	)	)
(	0.0522	(	0.041435172370717	0	0	)	)
(	0.0523	(	0.041591839324041	0	0	)	)
(	0.0524	(	0.041748789046551	0	0	)	)
(	0.0525	(	0.041906021441432	0	0	)	)
(	0.0526	(	0.042063536411695	0	0	)	)
(	0.0527	(	0.042221333860177	0	0	)	)
(	0.0528	(	0.042379413689541	0	0	)	)
(	0.0529	(	0.042537775802275	0	0	)	)
(	0.053	(	0.042696420100693	0	0	)	)
(	0.0531	(	0.042855346486936	0	0	)	)
(	0.0532	(	0.043014554862969	0	0	)	)
(	0.0533	(	0.043174045130586	0	0	)	)
(	0.0534	(	0.043333817191404	0	0	)	)
(	0.0535	(	0.043493870946868	0	0	)	)
(	0.0536	(	0.043654206298249	0	0	)	)
(	0.0537	(	0.043814823146643	0	0	)	)
(	0.0538	(	0.043975721392975	0	0	)	)
(	0.0539	(	0.044136900937995	0	0	)	)
(	0.054	(	0.044298361682277	0	0	)	)
(	0.0541	(	0.044460103526227	0	0	)	)
(	0.0542	(	0.044622126370072	0	0	)	)
(	0.0543	(	0.04478443011387	0	0	)	)
(	0.0544	(	0.044947014657502	0	0	)	)
(	0.0545	(	0.04510987990068	0	0	)	)
(	0.0546	(	0.045273025742938	0	0	)	)
(	0.0547	(	0.045436452083642	0	0	)	)
(	0.0548	(	0.04560015882198	0	0	)	)
(	0.0549	(	0.045764145856971	0	0	)	)
(	0.055	(	0.045928413087459	0	0	)	)
(	0.0551	(	0.046092960412117	0	0	)	)
(	0.0552	(	0.046257787729442	0	0	)	)
(	0.0553	(	0.046422894937761	0	0	)	)
(	0.0554	(	0.046588281935227	0	0	)	)
(	0.0555	(	0.046753948619823	0	0	)	)
(	0.0556	(	0.046919894889355	0	0	)	)
(	0.0557	(	0.047086120641461	0	0	)	)
(	0.0558	(	0.047252625773603	0	0	)	)
(	0.0559	(	0.047419410183073	0	0	)	)
(	0.056	(	0.04758647376699	0	0	)	)
(	0.0561	(	0.047753816422301	0	0	)	)
(	0.0562	(	0.047921438045781	0	0	)	)
(	0.0563	(	0.048089338534031	0	0	)	)
(	0.0564	(	0.048257517783483	0	0	)	)
(	0.0565	(	0.048425975690395	0	0	)	)
(	0.0566	(	0.048594712150853	0	0	)	)
(	0.0567	(	0.048763727060774	0	0	)	)
(	0.0568	(	0.048933020315899	0	0	)	)
(	0.0569	(	0.0491025918118	0	0	)	)
(	0.057	(	0.049272441443877	0	0	)	)
(	0.0571	(	0.049442569107359	0	0	)	)
(	0.0572	(	0.049612974697301	0	0	)	)
(	0.0573	(	0.04978365810859	0	0	)	)
(	0.0574	(	0.049954619235938	0	0	)	)
(	0.0575	(	0.050125857973889	0	0	)	)
(	0.0576	(	0.050297374216815	0	0	)	)
(	0.0577	(	0.050469167858914	0	0	)	)
(	0.0578	(	0.050641238794216	0	0	)	)
(	0.0579	(	0.05081358691658	0	0	)	)
(	0.058	(	0.050986212119692	0	0	)	)
(	0.0581	(	0.051159114297069	0	0	)	)
(	0.0582	(	0.051332293342055	0	0	)	)
(	0.0583	(	0.051505749147824	0	0	)	)
(	0.0584	(	0.051679481607382	0	0	)	)
(	0.0585	(	0.051853490613561	0	0	)	)
(	0.0586	(	0.052027776059023	0	0	)	)
(	0.0587	(	0.05220233783626	0	0	)	)
(	0.0588	(	0.052377175837594	0	0	)	)
(	0.0589	(	0.052552289955177	0	0	)	)
(	0.059	(	0.052727680080988	0	0	)	)
(	0.0591	(	0.052903346106838	0	0	)	)
(	0.0592	(	0.053079287924368	0	0	)	)
(	0.0593	(	0.053255505425048	0	0	)	)
(	0.0594	(	0.053431998500179	0	0	)	)
(	0.0595	(	0.05360876704089	0	0	)	)
(	0.0596	(	0.053785810938141	0	0	)	)
(	0.0597	(	0.053963130082724	0	0	)	)
(	0.0598	(	0.054140724365258	0	0	)	)
(	0.0599	(	0.054318593676195	0	0	)	)
(	0.06	(	0.054496737905816	0	0	)	)
(	0.0601	(	0.054675156944233	0	0	)	)
(	0.0602	(	0.054853850681387	0	0	)	)
(	0.0603	(	0.055032819007052	0	0	)	)
(	0.0604	(	0.055212061810831	0	0	)	)
(	0.0605	(	0.055391578982158	0	0	)	)
(	0.0606	(	0.055571370410297	0	0	)	)
(	0.0607	(	0.055751435984345	0	0	)	)
(	0.0608	(	0.055931775593228	0	0	)	)
(	0.0609	(	0.056112389125703	0	0	)	)
(	0.061	(	0.056293276470358	0	0	)	)
(	0.0611	(	0.056474437515615	0	0	)	)
(	0.0612	(	0.056655872149722	0	0	)	)
(	0.0613	(	0.056837580260762	0	0	)	)
(	0.0614	(	0.057019561736649	0	0	)	)
(	0.0615	(	0.057201816465127	0	0	)	)
(	0.0616	(	0.057384344333772	0	0	)	)
(	0.0617	(	0.057567145229993	0	0	)	)
(	0.0618	(	0.057750219041027	0	0	)	)
(	0.0619	(	0.057933565653946	0	0	)	)
(	0.062	(	0.058117184955653	0	0	)	)
(	0.0621	(	0.058301076832882	0	0	)	)
(	0.0622	(	0.0584852411722	0	0	)	)
(	0.0623	(	0.058669677860003	0	0	)	)
(	0.0624	(	0.058854386782523	0	0	)	)
(	0.0625	(	0.059039367825823	0	0	)	)
(	0.0626	(	0.059224620875795	0	0	)	)
(	0.0627	(	0.059410145818167	0	0	)	)
(	0.0628	(	0.059595942538498	0	0	)	)
(	0.0629	(	0.059782010922179	0	0	)	)
(	0.063	(	0.059968350854434	0	0	)	)
(	0.0631	(	0.060154962220319	0	0	)	)
(	0.0632	(	0.060341844904722	0	0	)	)
(	0.0633	(	0.060528998792365	0	0	)	)
(	0.0634	(	0.060716423767802	0	0	)	)
(	0.0635	(	0.060904119715421	0	0	)	)
(	0.0636	(	0.061092086519439	0	0	)	)
(	0.0637	(	0.061280324063911	0	0	)	)
(	0.0638	(	0.061468832232722	0	0	)	)
(	0.0639	(	0.06165761090959	0	0	)	)
(	0.064	(	0.061846659978068	0	0	)	)
(	0.0641	(	0.062035979321541	0	0	)	)
(	0.0642	(	0.062225568823225	0	0	)	)
(	0.0643	(	0.062415428366175	0	0	)	)
(	0.0644	(	0.062605557833274	0	0	)	)
(	0.0645	(	0.062795957107241	0	0	)	)
(	0.0646	(	0.062986626070628	0	0	)	)
(	0.0647	(	0.063177564605821	0	0	)	)
(	0.0648	(	0.06336877259504	0	0	)	)
(	0.0649	(	0.063560249920338	0	0	)	)
(	0.065	(	0.063751996463601	0	0	)	)
(	0.0651	(	0.063944012106552	0	0	)	)
(	0.0652	(	0.064136296730746	0	0	)	)
(	0.0653	(	0.06432885021757	0	0	)	)
(	0.0654	(	0.06452167244825	0	0	)	)
(	0.0655	(	0.064714763303841	0	0	)	)
(	0.0656	(	0.064908122665237	0	0	)	)
(	0.0657	(	0.065101750413164	0	0	)	)
(	0.0658	(	0.065295646428181	0	0	)	)
(	0.0659	(	0.065489810590685	0	0	)	)
(	0.066	(	0.065684242780904	0	0	)	)
(	0.0661	(	0.065878942878905	0	0	)	)
(	0.0662	(	0.066073910764585	0	0	)	)
(	0.0663	(	0.066269146317679	0	0	)	)
(	0.0664	(	0.066464649417755	0	0	)	)
(	0.0665	(	0.066660419944218	0	0	)	)
(	0.0666	(	0.066856457776306	0	0	)	)
(	0.0667	(	0.067052762793094	0	0	)	)
(	0.0668	(	0.067249334873491	0	0	)	)
(	0.0669	(	0.06744617389624	0	0	)	)
(	0.067	(	0.067643279739923	0	0	)	)
(	0.0671	(	0.067840652282953	0	0	)	)
(	0.0672	(	0.068038291403582	0	0	)	)
(	0.0673	(	0.068236196979897	0	0	)	)
(	0.0674	(	0.068434368889818	0	0	)	)
(	0.0675	(	0.068632807011104	0	0	)	)
(	0.0676	(	0.068831511221348	0	0	)	)
(	0.0677	(	0.069030481397979	0	0	)	)
(	0.0678	(	0.069229717418263	0	0	)	)
(	0.0679	(	0.0694292191593	0	0	)	)
(	0.068	(	0.069628986498028	0	0	)	)
(	0.0681	(	0.069829019311221	0	0	)	)
(	0.0682	(	0.070029317475488	0	0	)	)
(	0.0683	(	0.070229880867274	0	0	)	)
(	0.0684	(	0.070430709362864	0	0	)	)
(	0.0685	(	0.070631802838375	0	0	)	)
(	0.0686	(	0.070833161169763	0	0	)	)
(	0.0687	(	0.071034784232819	0	0	)	)
(	0.0688	(	0.071236671903174	0	0	)	)
(	0.0689	(	0.071438824056292	0	0	)	)
(	0.069	(	0.071641240567475	0	0	)	)
(	0.0691	(	0.071843921311864	0	0	)	)
(	0.0692	(	0.072046866164434	0	0	)	)
(	0.0693	(	0.072250074999998	0	0	)	)
(	0.0694	(	0.072453547693208	0	0	)	)
(	0.0695	(	0.072657284118551	0	0	)	)
(	0.0696	(	0.072861284150353	0	0	)	)
(	0.0697	(	0.073065547662775	0	0	)	)
(	0.0698	(	0.073270074529818	0	0	)	)
(	0.0699	(	0.073474864625319	0	0	)	)
(	0.07	(	0.073679917822954	0	0	)	)
(	0.0701	(	0.073885233996235	0	0	)	)
(	0.0702	(	0.074090813018514	0	0	)	)
(	0.0703	(	0.074296654762978	0	0	)	)
(	0.0704	(	0.074502759102654	0	0	)	)
(	0.0705	(	0.074709125910407	0	0	)	)
(	0.0706	(	0.074915755058939	0	0	)	)
(	0.0707	(	0.075122646420791	0	0	)	)
(	0.0708	(	0.075329799868342	0	0	)	)
(	0.0709	(	0.075537215273809	0	0	)	)
(	0.071	(	0.075744892509248	0	0	)	)
(	0.0711	(	0.075952831446554	0	0	)	)
(	0.0712	(	0.076161031957458	0	0	)	)
(	0.0713	(	0.076369493913534	0	0	)	)
(	0.0714	(	0.07657821718619	0	0	)	)
(	0.0715	(	0.076787201646676	0	0	)	)
(	0.0716	(	0.076996447166079	0	0	)	)
(	0.0717	(	0.077205953615327	0	0	)	)
(	0.0718	(	0.077415720865185	0	0	)	)
(	0.0719	(	0.077625748786259	0	0	)	)
(	0.072	(	0.077836037248993	0	0	)	)
(	0.0721	(	0.078046586123669	0	0	)	)
(	0.0722	(	0.078257395280412	0	0	)	)
(	0.0723	(	0.078468464589183	0	0	)	)
(	0.0724	(	0.078679793919784	0	0	)	)
(	0.0725	(	0.078891383141857	0	0	)	)
(	0.0726	(	0.079103232124882	0	0	)	)
(	0.0727	(	0.079315340738182	0	0	)	)
(	0.0728	(	0.079527708850916	0	0	)	)
(	0.0729	(	0.079740336332084	0	0	)	)
(	0.073	(	0.079953223050529	0	0	)	)
(	0.0731	(	0.08016636887493	0	0	)	)
(	0.0732	(	0.080379773673809	0	0	)	)
(	0.0733	(	0.080593437315527	0	0	)	)
(	0.0734	(	0.080807359668285	0	0	)	)
(	0.0735	(	0.081021540600125	0	0	)	)
(	0.0736	(	0.081235979978929	0	0	)	)
(	0.0737	(	0.081450677672422	0	0	)	)
(	0.0738	(	0.081665633548165	0	0	)	)
(	0.0739	(	0.081880847473565	0	0	)	)
(	0.074	(	0.082096319315865	0	0	)	)
(	0.0741	(	0.082312048942152	0	0	)	)
(	0.0742	(	0.082528036219354	0	0	)	)
(	0.0743	(	0.082744281014238	0	0	)	)
(	0.0744	(	0.082960783193415	0	0	)	)
(	0.0745	(	0.083177542623333	0	0	)	)
(	0.0746	(	0.083394559170286	0	0	)	)
(	0.0747	(	0.083611832700406	0	0	)	)
(	0.0748	(	0.083829363079668	0	0	)	)
(	0.0749	(	0.08404715017389	0	0	)	)
(	0.075	(	0.084265193848727	0	0	)	)
(	0.0751	(	0.084483493969682	0	0	)	)
(	0.0752	(	0.084702050402094	0	0	)	)
(	0.0753	(	0.084920863011147	0	0	)	)
(	0.0754	(	0.085139931661867	0	0	)	)
(	0.0755	(	0.085359256219121	0	0	)	)
(	0.0756	(	0.085578836547619	0	0	)	)
(	0.0757	(	0.085798672511913	0	0	)	)
(	0.0758	(	0.086018763976396	0	0	)	)
(	0.0759	(	0.086239110805305	0	0	)	)
(	0.076	(	0.086459712862719	0	0	)	)
(	0.0761	(	0.08668057001256	0	0	)	)
(	0.0762	(	0.086901682118592	0	0	)	)
(	0.0763	(	0.087123049044423	0	0	)	)
(	0.0764	(	0.0873446706535	0	0	)	)
(	0.0765	(	0.087566546809118	0	0	)	)
(	0.0766	(	0.087788677374412	0	0	)	)
(	0.0767	(	0.088011062212361	0	0	)	)
(	0.0768	(	0.088233701185786	0	0	)	)
(	0.0769	(	0.088456594157353	0	0	)	)
(	0.077	(	0.08867974098957	0	0	)	)
(	0.0771	(	0.088903141544789	0	0	)	)
(	0.0772	(	0.089126795685205	0	0	)	)
(	0.0773	(	0.089350703272857	0	0	)	)
(	0.0774	(	0.089574864169628	0	0	)	)
(	0.0775	(	0.089799278237243	0	0	)	)
(	0.0776	(	0.090023945337274	0	0	)	)
(	0.0777	(	0.090248865331134	0	0	)	)
(	0.0778	(	0.090474038080081	0	0	)	)
(	0.0779	(	0.090699463445217	0	0	)	)
(	0.078	(	0.090925141287488	0	0	)	)
(	0.0781	(	0.091151071467686	0	0	)	)